tests/data/power_flow/r-state-estimation/input.json
{
  "version": "1.0",
  "type": "input",
  "is_batch": false,
  "attributes": {},
  "data": {
    "node": [
      {
        "id": 1,
        "u_rated": 398.37168574084177
      },
      {
        "id": 2,
        "u_rated": 398.37168574084177
      },
      {
        "id": 3,
        "u_rated": 398.37168574084177
      },
      {
        "id": 4,
        "u_rated": 398.37168574084177
      }
    ],
    "line": [
      {
        "id": 5,
        "from_node": 1,
        "to_node": 2,
        "from_status": 1,
        "to_status": 1,
        "r1": 0.1,
        "x1": 0.0,
        "c1": 0.0,
        "tan1": 0.0,
        "r0": 0.0,
        "x0": 0.0,
        "c0": 0.0,
        "tan0": 0.0,
        "i_n": 1000.0
      },
      {
        "id": 6,
        "from_node": 2,
        "to_node": 3,
        "from_status": 1,
        "to_status": 1,
        "r1": 0.1,
        "x1": 0.0,
        "c1": 0.0,
        "tan1": 0.0,
        "r0": 0.0,
        "x0": 0.0,
        "c0": 0.0,
        "tan0": 0.0,
        "i_n": 1000.0
      },
      {
        "id": 7,
        "from_node": 2,
        "to_node": 4,
        "from_status": 1,
        "to_status": 1,
        "r1": 0.1,
        "x1": 0.0,
        "c1": 0.0,
        "tan1": 0.0,
        "r0": 0.0,
        "x0": 0.0,
        "c0": 0.0,
        "tan0": 0.0,
        "i_n": 1000.0
      }
    ],
    "source": [
      {
        "id": 8,
        "node": 1,
        "status": 1,
        "u_ref": 1
      }
    ],
    "sym_load": [
      {
        "id": 9,
        "node": 3,
        "status": 1,
        "type": 1,
        "p_specified": 3000.0,
        "q_specified": 0.0
      },
      {
        "id": 10,
        "node": 4,
        "status": 1,
        "type": 1,
        "p_specified": 3150,
        "q_specified": 0.0
      }
    ]
  }
}
